XFLR5 v6.06

 Calculated polar for: pelafoil

 1 1 Reynolds number fixed          Mach number fixed         

 xtrf =   1.000 (top)        1.000 (bottom)
 Mach =   0.000     Re =     0.020 e 6     Ncrit =   9.000

  alpha     CL        CD       CDp       Cm    Top Xtr Bot Xtr   Cpmin    Chinge    XCp    
 ------- -------- --------- --------- -------- ------- ------- -------- --------- ---------
  -2.000  -0.0922   0.04234   0.02994  -0.0615  1.0000  0.3254  -1.5096   0.0000  -0.4241
  -1.500  -0.0265   0.03843   0.02562  -0.0640  1.0000  0.4135  -1.4345   0.0000  -2.1848
  -1.000   0.0089   0.03285   0.02205  -0.0546  1.0000  0.7450  -1.4304   0.0000   6.4687
  -1.000   0.0089   0.03285   0.02205  -0.0546  1.0000  0.7450  -1.4304   0.0000   6.4687
   0.000   0.1255   0.03356   0.01881  -0.0624  1.0000  1.0000  -1.1245   0.0000   0.7483
   0.500   0.1676   0.03505   0.01956  -0.0630  1.0000  1.0000  -0.9173   0.0000   0.6248
   1.000   0.2081   0.03676   0.02072  -0.0635  1.0000  1.0000  -0.7177   0.0000   0.5533
   1.500   0.2469   0.03869   0.02224  -0.0640  1.0000  1.0000  -0.5290   0.0000   0.5068
   2.000   0.2843   0.04086   0.02412  -0.0646  1.0000  1.0000  -0.5198   0.0000   0.4743
   2.500   0.3201   0.04327   0.02616  -0.0653  1.0000  1.0000  -0.5467   0.0000   0.4504
   3.000   0.3543   0.04595   0.02870  -0.0660  1.0000  1.0000  -0.5753   0.0000   0.4322
   3.500   0.3869   0.04891   0.03158  -0.0668  1.0000  1.0000  -0.6031   0.0000   0.4182
   4.000   0.4179   0.05216   0.03487  -0.0678  1.0000  1.0000  -0.6338   0.0000   0.4072
   4.500   0.4470   0.05572   0.03847  -0.0688  1.0000  1.0000  -0.6640   0.0000   0.3985
   5.000   0.4744   0.05961   0.04246  -0.0700  1.0000  1.0000  -0.6955   0.0000   0.3916
   5.500   0.5002   0.06385   0.04685  -0.0713  1.0000  1.0000  -0.7279   0.0000   0.3862
   6.000   0.5243   0.06846   0.05172  -0.0729  1.0000  1.0000  -0.7607   0.0000   0.3821
   6.500   0.5467   0.07344   0.05692  -0.0746  1.0000  1.0000  -0.7981   0.0000   0.3789
   7.000   0.5675   0.07880   0.06252  -0.0764  1.0000  1.0000  -0.8361   0.0000   0.3767
   7.500   0.5868   0.08455   0.06854  -0.0784  1.0000  1.0000  -0.8801   0.0000   0.3752
   8.000   0.6050   0.09069   0.07498  -0.0806  1.0000  1.0000  -0.9595   0.0000   0.3743
   8.500   0.6221   0.09721   0.08180  -0.0831  1.0000  1.0000  -1.0638   0.0000   0.3740
   9.000   0.6383   0.10409   0.08912  -0.0856  1.0000  1.0000  -1.1656   0.0000   0.3741
   9.500   0.6538   0.11130   0.09665  -0.0884  1.0000  1.0000  -1.2573   0.0000   0.3745
  10.000   0.7010   0.12266   0.10856  -0.0990  0.9614  1.0000  -1.4068   0.0000   0.3801


