XFLR5 v6.06

 Calculated polar for: pelafoil

 1 1 Reynolds number fixed          Mach number fixed         

 xtrf =   1.000 (top)        1.000 (bottom)
 Mach =   0.000     Re =     0.100 e 6     Ncrit =   9.000

  alpha     CL        CD       CDp       Cm    Top Xtr Bot Xtr   Cpmin    Chinge    XCp    
 ------- -------- --------- --------- -------- ------- ------- -------- --------- ---------
  -2.000   0.1666   0.02309   0.01417  -0.1041  0.9322  0.0924  -1.4755   0.0000   0.8791
  -1.500   0.2299   0.01947   0.01260  -0.1065  0.9193  0.5501  -1.3168   0.0000   0.7157
  -1.000   0.2982   0.01863   0.01227  -0.1069  0.9058  1.0000  -1.0318   0.0000   0.6098
  -0.500   0.3572   0.01926   0.01248  -0.1082  0.8876  1.0000  -0.7666   0.0000   0.5532
   0.000   0.4368   0.01941   0.01229  -0.1124  0.8743  1.0000  -0.6009   0.0000   0.5069
   0.500   0.4892   0.02003   0.01273  -0.1121  0.8540  1.0000  -0.6408   0.0000   0.4782
   1.000   0.5626   0.01996   0.01240  -0.1142  0.8414  1.0000  -0.7005   0.0000   0.4515
   1.500   0.6114   0.02050   0.01288  -0.1131  0.8189  1.0000  -0.7480   0.0000   0.4329
   2.000   0.6696   0.02067   0.01299  -0.1127  0.8016  1.0000  -0.8091   0.0000   0.4158
   2.500   0.7288   0.02048   0.01276  -0.1119  0.7834  1.0000  -0.8791   0.0000   0.4007
   3.000   0.7797   0.02076   0.01310  -0.1104  0.7608  1.0000  -0.9507   0.0000   0.3883
   3.500   0.8377   0.02046   0.01282  -0.1092  0.7422  1.0000  -1.0415   0.0000   0.3764
   4.000   0.8953   0.01997   0.01235  -0.1076  0.7210  1.0000  -1.1793   0.0000   0.3658
   4.500   0.9474   0.01987   0.01243  -0.1057  0.6945  1.0000  -1.4687   0.0000   0.3567
   5.000   1.0011   0.01961   0.01227  -0.1038  0.6664  1.0000  -1.7733   0.0000   0.3483
   5.500   1.0554   0.01927   0.01200  -0.1019  0.6351  1.0000  -2.0955   0.0000   0.3405
   6.000   1.1099   0.01895   0.01176  -0.0998  0.5990  1.0000  -2.4277   0.0000   0.3333
   6.500   1.1560   0.01908   0.01203  -0.0969  0.5498  1.0000  -2.7535   0.0000   0.3266
   7.000   1.2003   0.01933   0.01226  -0.0937  0.4899  1.0000  -3.0851   0.0000   0.3202
   7.500   1.2345   0.02008   0.01277  -0.0893  0.4025  1.0000  -3.3873   0.0000   0.3137
   8.000   1.2553   0.02206   0.01414  -0.0840  0.2820  1.0000  -3.6299   0.0000   0.3075
   8.500   1.2468   0.02703   0.01791  -0.0758  0.1149  1.0000  -3.6727   0.0000   0.3007
   9.000   1.2389   0.03224   0.02278  -0.0672  0.0719  1.0000  -3.5950   0.0000   0.2935
   9.500   1.2545   0.03594   0.02651  -0.0625  0.0581  1.0000  -3.7195   0.0000   0.2884
  10.000   1.2763   0.03952   0.03027  -0.0590  0.0476  1.0000  -4.0506   0.0000   0.2841


