XFLR5 v6.06

 Calculated polar for: pelafoil

 1 1 Reynolds number fixed          Mach number fixed         

 xtrf =   1.000 (top)        1.000 (bottom)
 Mach =   0.000     Re =     0.040 e 6     Ncrit =   9.000

  alpha     CL        CD       CDp       Cm    Top Xtr Bot Xtr   Cpmin    Chinge    XCp    
 ------- -------- --------- --------- -------- ------- ------- -------- --------- ---------
  -2.000  -0.0596   0.03484   0.02447  -0.0695  1.0000  0.1666  -1.6029   0.0000  -0.9278
  -1.500   0.0007   0.03216   0.02107  -0.0711  1.0000  0.1912  -1.5143   0.0000  97.2764
  -1.000   0.0641   0.03000   0.01893  -0.0728  1.0000  0.2936  -1.3954   0.0000   1.3904
  -0.500   0.1013   0.02671   0.01733  -0.0676  1.0000  1.0000  -1.3481   0.0000   0.9197
   0.000   0.1455   0.02822   0.01801  -0.0683  1.0000  1.0000  -1.1373   0.0000   0.7201
   0.500   0.1873   0.02994   0.01918  -0.0690  1.0000  1.0000  -0.9249   0.0000   0.6180
   1.000   0.2269   0.03187   0.02073  -0.0697  1.0000  1.0000  -0.7218   0.0000   0.5556
   1.500   0.2649   0.03403   0.02261  -0.0704  1.0000  1.0000  -0.5305   0.0000   0.5136
   2.000   0.3301   0.03695   0.02528  -0.0765  0.9860  1.0000  -0.5396   0.0000   0.4789
   2.500   0.4187   0.04046   0.02848  -0.0863  0.9565  1.0000  -0.6038   0.0000   0.4530
   3.000   0.4830   0.04356   0.03156  -0.0915  0.9267  1.0000  -0.6568   0.0000   0.4358
   3.500   0.5460   0.04668   0.03469  -0.0959  0.8948  1.0000  -0.7170   0.0000   0.4217
   4.000   0.6029   0.04973   0.03780  -0.0990  0.8616  1.0000  -0.7799   0.0000   0.4097
   4.500   0.6556   0.05276   0.04102  -0.1011  0.8272  1.0000  -0.8465   0.0000   0.3992
   5.000   0.7095   0.05571   0.04416  -0.1028  0.7908  1.0000  -0.9271   0.0000   0.3895
   5.500   0.7773   0.05824   0.04696  -0.1051  0.7527  1.0000  -1.0608   0.0000   0.3794
   6.000   0.8283   0.06091   0.05001  -0.1050  0.7140  1.0000  -1.3181   0.0000   0.3705
   6.500   0.8586   0.06404   0.05343  -0.1029  0.6731  1.0000  -1.5179   0.0000   0.3631
   7.000   0.9549   0.06313   0.05309  -0.1028  0.6294  1.0000  -1.9553   0.0000   0.3504
   7.500   0.9594   0.06760   0.05781  -0.0987  0.5837  1.0000  -2.0777   0.0000   0.3451
   8.000   1.0479   0.06391   0.05498  -0.0936  0.5317  1.0000  -2.5352   0.0000   0.3309
   8.500   1.2578   0.03832   0.02970  -0.0783  0.3866  1.0000  -3.5821   0.0000   0.3027
   9.000   1.2467   0.04105   0.03149  -0.0665  0.2520  1.0000  -3.6199   0.0000   0.2929
   9.500   1.2463   0.04700   0.03666  -0.0591  0.1662  1.0000  -3.5659   0.0000   0.2862
  10.000   1.2954   0.05504   0.04448  -0.0575  0.1261  1.0000  -3.5902   0.0000   0.2825


