XFLR5 v6.06

 Calculated polar for: pelafoil

 1 1 Reynolds number fixed          Mach number fixed         

 xtrf =   1.000 (top)        1.000 (bottom)
 Mach =   0.000     Re =     0.010 e 6     Ncrit =   9.000

  alpha     CL        CD       CDp       Cm    Top Xtr Bot Xtr   Cpmin    Chinge    XCp    
 ------- -------- --------- --------- -------- ------- ------- -------- --------- ---------
  -2.000  -0.0922   0.04234   0.02994  -0.0615  1.0000  0.3254  -1.5096   0.0000  -0.4241
  -1.500  -0.0918   0.04255   0.02897  -0.0246  1.0000  1.0000  -1.4633   0.0000  -0.0248
  -1.500  -0.0918   0.04255   0.02897  -0.0246  1.0000  1.0000  -1.4633   0.0000  -0.0248
  -0.500   0.0597   0.04104   0.02102  -0.0566  1.0000  1.0000  -1.2977   0.0000   1.2020
   0.000   0.1039   0.04213   0.02080  -0.0570  1.0000  1.0000  -1.0978   0.0000   0.7998
   0.500   0.1460   0.04343   0.02110  -0.0574  1.0000  1.0000  -0.8985   0.0000   0.6421
   1.000   0.1865   0.04492   0.02184  -0.0577  1.0000  1.0000  -0.7058   0.0000   0.5573
   1.500   0.2256   0.04663   0.02298  -0.0579  1.0000  1.0000  -0.5226   0.0000   0.5044
   2.000   0.2632   0.04856   0.02448  -0.0583  1.0000  1.0000  -0.5134   0.0000   0.4684
   2.500   0.2994   0.05072   0.02636  -0.0587  1.0000  1.0000  -0.5416   0.0000   0.4424
   3.000   0.3343   0.05313   0.02831  -0.0591  1.0000  1.0000  -0.5700   0.0000   0.4228
   3.500   0.3678   0.05581   0.03085  -0.0597  1.0000  1.0000  -0.5991   0.0000   0.4078
   4.000   0.3997   0.05876   0.03383  -0.0604  1.0000  1.0000  -0.6306   0.0000   0.3961
   4.500   0.4301   0.06200   0.03709  -0.0612  1.0000  1.0000  -0.6609   0.0000   0.3868
   5.000   0.4588   0.06556   0.04075  -0.0622  1.0000  1.0000  -0.6955   0.0000   0.3796
   5.500   0.4859   0.06944   0.04481  -0.0633  1.0000  1.0000  -0.7288   0.0000   0.3738
   6.000   0.5114   0.07366   0.04927  -0.0646  1.0000  1.0000  -0.7656   0.0000   0.3694
   6.500   0.5353   0.07825   0.05424  -0.0661  1.0000  1.0000  -0.8046   0.0000   0.3660
   7.000   0.5577   0.08320   0.05952  -0.0678  1.0000  1.0000  -0.8446   0.0000   0.3635
   7.500   0.5784   0.08853   0.06521  -0.0696  1.0000  1.0000  -0.8939   0.0000   0.3619
   8.000   0.5977   0.09422   0.07129  -0.0717  1.0000  1.0000  -0.9554   0.0000   0.3609
   8.500   0.6156   0.10027   0.07776  -0.0740  1.0000  1.0000  -1.0652   0.0000   0.3605
   9.000   0.6324   0.10667   0.08477  -0.0764  1.0000  1.0000  -1.1725   0.0000   0.3606
   9.500   0.6483   0.11340   0.09194  -0.0791  1.0000  1.0000  -1.2700   0.0000   0.3612
  10.000   0.6633   0.12042   0.09940  -0.0819  1.0000  1.0000  -1.3578   0.0000   0.3621


