XFLR5 v6.06

 Calculated polar for: pelafoil

 1 1 Reynolds number fixed          Mach number fixed         

 xtrf =   1.000 (top)        1.000 (bottom)
 Mach =   0.000     Re =     0.050 e 6     Ncrit =   9.000

  alpha     CL        CD       CDp       Cm    Top Xtr Bot Xtr   Cpmin    Chinge    XCp    
 ------- -------- --------- --------- -------- ------- ------- -------- --------- ---------
  -2.000  -0.0521   0.03265   0.02261  -0.0702  1.0000  0.1274  -1.6804   0.0000  -1.1094
  -1.500   0.0019   0.03089   0.02040  -0.0714  1.0000  0.1544  -1.5475   0.0000  38.5014
  -1.000   0.0625   0.02892   0.01826  -0.0726  1.0000  0.2052  -1.4282   0.0000   1.4171
  -0.500   0.1073   0.02545   0.01715  -0.0695  1.0000  1.0000  -1.3515   0.0000   0.9003
   0.000   0.1511   0.02703   0.01796  -0.0702  1.0000  1.0000  -1.1407   0.0000   0.7153
   0.500   0.2360   0.02926   0.01954  -0.0788  0.9804  1.0000  -0.8220   0.0000   0.5829
   1.000   0.3227   0.03162   0.02146  -0.0873  0.9583  1.0000  -0.5273   0.0000   0.5190
   1.500   0.3988   0.03382   0.02341  -0.0935  0.9334  1.0000  -0.5798   0.0000   0.4825
   2.000   0.4602   0.03586   0.02520  -0.0969  0.9072  1.0000  -0.6278   0.0000   0.4581
   2.500   0.5188   0.03798   0.02723  -0.0996  0.8801  1.0000  -0.6799   0.0000   0.4390
   3.000   0.5779   0.04010   0.02936  -0.1020  0.8519  1.0000  -0.7383   0.0000   0.4231
   3.500   0.6354   0.04219   0.03149  -0.1038  0.8232  1.0000  -0.8024   0.0000   0.4095
   4.000   0.6920   0.04417   0.03363  -0.1051  0.7933  1.0000  -0.8738   0.0000   0.3975
   4.500   0.7480   0.04597   0.03558  -0.1057  0.7620  1.0000  -0.9589   0.0000   0.3865
   5.000   0.8042   0.04754   0.03736  -0.1058  0.7298  1.0000  -1.0707   0.0000   0.3763
   5.500   0.8656   0.04849   0.03868  -0.1055  0.6967  1.0000  -1.3648   0.0000   0.3662
   6.000   0.9361   0.04816   0.03872  -0.1046  0.6633  1.0000  -1.7117   0.0000   0.3554
   6.500   1.0241   0.04511   0.03616  -0.1024  0.6308  1.0000  -2.1463   0.0000   0.3431
   7.000   1.0706   0.04472   0.03630  -0.0977  0.5878  1.0000  -2.4470   0.0000   0.3338
   7.500   1.1931   0.03554   0.02761  -0.0931  0.5371  1.0000  -3.0848   0.0000   0.3199
   8.000   1.2477   0.03209   0.02411  -0.0857  0.4509  1.0000  -3.4703   0.0000   0.3097
   8.500   1.2556   0.03254   0.02419  -0.0759  0.3337  1.0000  -3.6584   0.0000   0.3006
   9.000   1.2335   0.03744   0.02784  -0.0653  0.2042  1.0000  -3.6416   0.0000   0.2923
   9.500   1.2388   0.04376   0.03324  -0.0589  0.1266  1.0000  -3.5935   0.0000   0.2863
  10.000   1.3069   0.05176   0.04145  -0.0590  0.1001  1.0000  -3.7236   0.0000   0.2832


