XFLR5 v6.06

 Calculated polar for: pelafoil

 1 1 Reynolds number fixed          Mach number fixed         

 xtrf =   1.000 (top)        1.000 (bottom)
 Mach =   0.000     Re =     0.300 e 6     Ncrit =   9.000

  alpha     CL        CD       CDp       Cm    Top Xtr Bot Xtr   Cpmin    Chinge    XCp    
 ------- -------- --------- --------- -------- ------- ------- -------- --------- ---------
  -2.000   0.2588   0.01123   0.00423  -0.1066  0.8393  0.0611  -1.3841   0.0000   0.6642
  -1.500   0.3137   0.00960   0.00375  -0.1073  0.8266  0.3927  -1.1257   0.0000   0.5934
  -1.000   0.3631   0.00858   0.00370  -0.1057  0.8138  0.7161  -0.8665   0.0000   0.5416
  -0.500   0.4157   0.00801   0.00353  -0.1040  0.8002  1.0000  -0.6100   0.0000   0.4999
   0.000   0.4719   0.00803   0.00333  -0.1038  0.7856  1.0000  -0.6454   0.0000   0.4693
   0.500   0.5281   0.00815   0.00324  -0.1038  0.7703  1.0000  -0.6899   0.0000   0.4453
   1.000   0.5840   0.00820   0.00312  -0.1036  0.7537  1.0000  -0.7388   0.0000   0.4256
   1.500   0.6399   0.00832   0.00316  -0.1035  0.7358  1.0000  -0.7929   0.0000   0.4095
   2.000   0.6956   0.00845   0.00312  -0.1032  0.7169  1.0000  -0.8537   0.0000   0.3956
   2.500   0.7509   0.00855   0.00317  -0.1029  0.6954  1.0000  -0.9221   0.0000   0.3839
   3.000   0.8061   0.00873   0.00331  -0.1027  0.6723  1.0000  -1.0006   0.0000   0.3738
   3.500   0.8608   0.00895   0.00345  -0.1023  0.6471  1.0000  -1.0916   0.0000   0.3648
   4.000   0.9149   0.00921   0.00364  -0.1019  0.6191  1.0000  -1.2820   0.0000   0.3567
   4.500   0.9684   0.00954   0.00395  -0.1013  0.5880  1.0000  -1.5807   0.0000   0.3495
   5.000   1.0208   0.00995   0.00429  -0.1006  0.5519  1.0000  -1.8861   0.0000   0.3429
   5.500   1.0712   0.01051   0.00469  -0.0996  0.5070  1.0000  -2.2011   0.0000   0.3367
   6.000   1.1196   0.01120   0.00528  -0.0984  0.4503  1.0000  -2.5162   0.0000   0.3310
   6.500   1.1622   0.01239   0.00604  -0.0964  0.3571  1.0000  -2.8352   0.0000   0.3255
   7.000   1.1984   0.01425   0.00723  -0.0939  0.2376  1.0000  -3.1401   0.0000   0.3202
   7.500   1.2300   0.01657   0.00881  -0.0909  0.1212  1.0000  -3.4278   0.0000   0.3152
   8.000   1.2549   0.01945   0.01105  -0.0869  0.0340  1.0000  -3.6275   0.0000   0.3099
   8.500   1.2853   0.02154   0.01328  -0.0832  0.0233  1.0000  -3.8437   0.0000   0.3047
   9.000   1.3018   0.02421   0.01624  -0.0776  0.0199  1.0000  -4.1073   0.0000   0.2989
   9.500   1.3294   0.02592   0.01809  -0.0741  0.0184  1.0000  -4.5574   0.0000   0.2943
  10.000   1.3528   0.02804   0.02037  -0.0705  0.0161  1.0000  -4.9797   0.0000   0.2899


