XFLR5 v6.06

 Calculated polar for: pelafoil

 1 1 Reynolds number fixed          Mach number fixed         

 xtrf =   1.000 (top)        1.000 (bottom)
 Mach =   0.000     Re =     0.200 e 6     Ncrit =   9.000

  alpha     CL        CD       CDp       Cm    Top Xtr Bot Xtr   Cpmin    Chinge    XCp    
 ------- -------- --------- --------- -------- ------- ------- -------- --------- ---------
  -2.000   0.2690   0.01366   0.00615  -0.1126  0.8729  0.0911  -1.3354   0.0000   0.6710
  -1.500   0.3177   0.01163   0.00595  -0.1121  0.8581  0.5742  -1.1134   0.0000   0.6043
  -1.000   0.3662   0.01051   0.00565  -0.1085  0.8455  1.0000  -0.8571   0.0000   0.5469
  -0.500   0.4208   0.01066   0.00552  -0.1081  0.8310  1.0000  -0.6020   0.0000   0.5069
   0.000   0.4760   0.01065   0.00526  -0.1076  0.8161  1.0000  -0.6423   0.0000   0.4753
   0.500   0.5306   0.01079   0.00518  -0.1071  0.8008  1.0000  -0.6861   0.0000   0.4506
   1.000   0.5857   0.01077   0.00499  -0.1064  0.7845  1.0000  -0.7350   0.0000   0.4300
   1.500   0.6402   0.01091   0.00504  -0.1059  0.7668  1.0000  -0.7883   0.0000   0.4133
   2.000   0.6957   0.01091   0.00487  -0.1052  0.7498  1.0000  -0.8493   0.0000   0.3986
   2.500   0.7499   0.01100   0.00494  -0.1047  0.7285  1.0000  -0.9166   0.0000   0.3865
   3.000   0.8044   0.01111   0.00502  -0.1040  0.7074  1.0000  -0.9945   0.0000   0.3758
   3.500   0.8591   0.01122   0.00503  -0.1033  0.6848  1.0000  -1.0851   0.0000   0.3662
   4.000   0.9132   0.01137   0.00511  -0.1026  0.6588  1.0000  -1.2686   0.0000   0.3578
   4.500   0.9663   0.01160   0.00536  -0.1017  0.6296  1.0000  -1.5664   0.0000   0.3502
   5.000   1.0186   0.01191   0.00566  -0.1008  0.5969  1.0000  -1.8706   0.0000   0.3433
   5.500   1.0694   0.01228   0.00605  -0.0996  0.5574  1.0000  -2.1853   0.0000   0.3370
   6.000   1.1180   0.01284   0.00652  -0.0981  0.5092  1.0000  -2.5005   0.0000   0.3309
   6.500   1.1635   0.01358   0.00714  -0.0962  0.4464  1.0000  -2.8278   0.0000   0.3252
   7.000   1.2017   0.01487   0.00801  -0.0934  0.3475  1.0000  -3.1407   0.0000   0.3197
   7.500   1.2341   0.01680   0.00938  -0.0902  0.2429  1.0000  -3.4313   0.0000   0.3144
   8.000   1.2520   0.02009   0.01165  -0.0856  0.0963  1.0000  -3.6424   0.0000   0.3090
   8.500   1.2599   0.02415   0.01534  -0.0791  0.0344  1.0000  -3.6910   0.0000   0.3027
   9.000   1.2820   0.02630   0.01773  -0.0744  0.0303  1.0000  -3.9137   0.0000   0.2973
   9.500   1.3007   0.02886   0.02048  -0.0700  0.0268  1.0000  -4.2717   0.0000   0.2924
  10.000   1.3151   0.03196   0.02372  -0.0657  0.0235  1.0000  -4.6096   0.0000   0.2878


