XFLR5 v6.06

 Calculated polar for: pelafoil

 1 1 Reynolds number fixed          Mach number fixed         

 xtrf =   1.000 (top)        1.000 (bottom)
 Mach =   0.000     Re =     0.150 e 6     Ncrit =   9.000

  alpha     CL        CD       CDp       Cm    Top Xtr Bot Xtr   Cpmin    Chinge    XCp    
 ------- -------- --------- --------- -------- ------- ------- -------- --------- ---------
  -2.000   0.2588   0.01646   0.00859  -0.1153  0.8967  0.1104  -1.3359   0.0000   0.6981
  -1.500   0.3054   0.01389   0.00830  -0.1134  0.8817  0.7106  -1.1418   0.0000   0.6231
  -1.000   0.3678   0.01326   0.00780  -0.1126  0.8714  1.0000  -0.8561   0.0000   0.5569
  -0.500   0.4191   0.01349   0.00775  -0.1119  0.8529  1.0000  -0.6114   0.0000   0.5170
   0.000   0.4782   0.01346   0.00744  -0.1116  0.8410  1.0000  -0.6378   0.0000   0.4828
   0.500   0.5296   0.01369   0.00747  -0.1108  0.8218  1.0000  -0.6790   0.0000   0.4581
   1.000   0.5868   0.01363   0.00720  -0.1099  0.8089  1.0000  -0.7299   0.0000   0.4357
   1.500   0.6387   0.01378   0.00730  -0.1090  0.7886  1.0000  -0.7812   0.0000   0.4186
   2.000   0.6932   0.01382   0.00724  -0.1081  0.7716  1.0000  -0.8413   0.0000   0.4034
   2.500   0.7481   0.01372   0.00705  -0.1070  0.7527  1.0000  -0.9096   0.0000   0.3901
   3.000   0.8011   0.01384   0.00720  -0.1060  0.7308  1.0000  -0.9855   0.0000   0.3789
   3.500   0.8554   0.01385   0.00717  -0.1050  0.7094  1.0000  -1.0751   0.0000   0.3688
   4.000   0.9103   0.01381   0.00706  -0.1039  0.6862  1.0000  -1.2492   0.0000   0.3597
   4.500   0.9639   0.01387   0.00715  -0.1028  0.6589  1.0000  -1.5480   0.0000   0.3516
   5.000   1.0163   0.01403   0.00732  -0.1015  0.6279  1.0000  -1.8519   0.0000   0.3444
   5.500   1.0669   0.01429   0.00765  -0.1001  0.5912  1.0000  -2.1645   0.0000   0.3377
   6.000   1.1162   0.01462   0.00805  -0.0983  0.5471  1.0000  -2.4807   0.0000   0.3314
   6.500   1.1627   0.01515   0.00854  -0.0963  0.4928  1.0000  -2.8107   0.0000   0.3254
   7.000   1.2026   0.01605   0.00916  -0.0933  0.4131  1.0000  -3.1297   0.0000   0.3195
   7.500   1.2347   0.01769   0.01030  -0.0896  0.3069  1.0000  -3.4211   0.0000   0.3139
   8.000   1.2564   0.02035   0.01224  -0.0851  0.1833  1.0000  -3.6519   0.0000   0.3084
   8.500   1.2465   0.02587   0.01674  -0.0766  0.0533  1.0000  -3.6115   0.0000   0.3014
   9.000   1.2640   0.02843   0.01937  -0.0717  0.0393  1.0000  -3.7974   0.0000   0.2960
   9.500   1.2683   0.03262   0.02377  -0.0657  0.0345  1.0000  -3.9610   0.0000   0.2904
  10.000   1.2910   0.03549   0.02688  -0.0621  0.0319  1.0000  -4.3164   0.0000   0.2860


