XFLR5 v6.06

 Calculated polar for: pelafoil

 1 1 Reynolds number fixed          Mach number fixed         

 xtrf =   1.000 (top)        1.000 (bottom)
 Mach =   0.000     Re =     0.400 e 6     Ncrit =   9.000

  alpha     CL        CD       CDp       Cm    Top Xtr Bot Xtr   Cpmin    Chinge    XCp    
 ------- -------- --------- --------- -------- ------- ------- -------- --------- ---------
  -2.000   0.2543   0.00987   0.00320  -0.1042  0.8185  0.0491  -1.4212   0.0000   0.6619
  -1.500   0.3102   0.00874   0.00277  -0.1047  0.8060  0.2710  -1.1363   0.0000   0.5887
  -1.000   0.3649   0.00782   0.00272  -0.1050  0.7931  0.5604  -0.8637   0.0000   0.5380
  -0.500   0.4096   0.00701   0.00272  -0.1019  0.7788  0.8653  -0.6241   0.0000   0.4984
   0.000   0.4705   0.00681   0.00253  -0.1026  0.7650  1.0000  -0.6466   0.0000   0.4672
   0.500   0.5269   0.00694   0.00240  -0.1026  0.7489  1.0000  -0.6913   0.0000   0.4433
   1.000   0.5836   0.00699   0.00238  -0.1027  0.7324  1.0000  -0.7403   0.0000   0.4241
   1.500   0.6398   0.00714   0.00237  -0.1026  0.7141  1.0000  -0.7947   0.0000   0.4081
   2.000   0.6957   0.00726   0.00238  -0.1025  0.6935  1.0000  -0.8556   0.0000   0.3947
   2.500   0.7516   0.00742   0.00247  -0.1025  0.6713  1.0000  -0.9243   0.0000   0.3832
   3.000   0.8070   0.00763   0.00261  -0.1023  0.6472  1.0000  -1.0032   0.0000   0.3732
   3.500   0.8618   0.00789   0.00278  -0.1021  0.6205  1.0000  -1.0949   0.0000   0.3644
   4.000   0.9161   0.00820   0.00300  -0.1018  0.5910  1.0000  -1.2886   0.0000   0.3565
   4.500   0.9698   0.00856   0.00332  -0.1014  0.5584  1.0000  -1.5878   0.0000   0.3494
   5.000   1.0223   0.00902   0.00367  -0.1008  0.5194  1.0000  -1.8939   0.0000   0.3430
   5.500   1.0728   0.00963   0.00410  -0.1000  0.4659  1.0000  -2.2096   0.0000   0.3369
   5.500   1.0728   0.00963   0.00410  -0.1000  0.4659  1.0000  -2.2096   0.0000   0.3369
   6.500   1.1591   0.01226   0.00574  -0.0966  0.2631  1.0000  -2.8287   0.0000   0.3258
   7.000   1.1969   0.01416   0.00699  -0.0944  0.1553  1.0000  -3.1381   0.0000   0.3208
   7.500   1.2333   0.01610   0.00842  -0.0920  0.0735  1.0000  -3.4403   0.0000   0.3159
   8.000   1.2646   0.01842   0.01036  -0.0886  0.0232  1.0000  -3.6556   0.0000   0.3107
   8.500   1.3011   0.02001   0.01219  -0.0858  0.0187  1.0000  -3.9363   0.0000   0.3059
   9.000   1.3364   0.02144   0.01376  -0.0830  0.0165  1.0000  -4.4167   0.0000   0.3013
   9.500   1.3645   0.02302   0.01543  -0.0792  0.0141  1.0000  -4.8906   0.0000   0.2965
  10.000   1.3775   0.02577   0.01835  -0.0738  0.0112  1.0000  -5.2225   0.0000   0.2913


