XFLR5 v6.06

 Calculated polar for: pelafoil

 1 1 Reynolds number fixed          Mach number fixed         

 xtrf =   1.000 (top)        1.000 (bottom)
 Mach =   0.000     Re =     0.030 e 6     Ncrit =   9.000

  alpha     CL        CD       CDp       Cm    Top Xtr Bot Xtr   Cpmin    Chinge    XCp    
 ------- -------- --------- --------- -------- ------- ------- -------- --------- ---------
  -2.000  -0.0676   0.03751   0.02628  -0.0681  1.0000  0.2209  -1.5595   0.0000  -0.7671
  -1.500  -0.0017   0.03439   0.02227  -0.0703  1.0000  0.2543  -1.4820   0.0000  -41.9923
  -1.000   0.0658   0.02965   0.01943  -0.0704  1.0000  0.5847  -1.4144   0.0000   1.3253
  -0.500   0.0930   0.02869   0.01771  -0.0652  1.0000  1.0000  -1.3429   0.0000   0.9533
   0.000   0.1375   0.03011   0.01822  -0.0659  1.0000  1.0000  -1.1330   0.0000   0.7294
   0.500   0.1796   0.03173   0.01922  -0.0665  1.0000  1.0000  -0.9221   0.0000   0.6195
   1.000   0.2199   0.03358   0.02061  -0.0672  1.0000  1.0000  -0.7198   0.0000   0.5538
   1.500   0.2583   0.03564   0.02235  -0.0678  1.0000  1.0000  -0.5293   0.0000   0.5102
   2.000   0.2950   0.03795   0.02442  -0.0685  1.0000  1.0000  -0.5214   0.0000   0.4792
   2.500   0.3302   0.04052   0.02669  -0.0692  1.0000  1.0000  -0.5471   0.0000   0.4562
   3.000   0.3637   0.04335   0.02942  -0.0700  1.0000  1.0000  -0.5753   0.0000   0.4387
   3.500   0.3955   0.04646   0.03248  -0.0710  1.0000  1.0000  -0.6028   0.0000   0.4250
   4.000   0.4255   0.04987   0.03593  -0.0720  1.0000  1.0000  -0.6318   0.0000   0.4142
   4.500   0.4543   0.05361   0.03972  -0.0732  0.9994  1.0000  -0.6616   0.0000   0.4058
   5.000   0.5440   0.05977   0.04607  -0.0860  0.9490  1.0000  -0.7446   0.0000   0.4023
   5.500   0.6225   0.06571   0.05232  -0.0949  0.8971  1.0000  -0.8346   0.0000   0.3963
   6.000   0.6657   0.07032   0.05718  -0.0975  0.8537  1.0000  -0.9042   0.0000   0.3900
   6.500   0.7265   0.07562   0.06280  -0.1017  0.8032  1.0000  -1.0596   0.0000   0.3830
   7.000   0.7986   0.08065   0.06837  -0.1056  0.7479  1.0000  -1.3609   0.0000   0.3749
   7.500   0.8064   0.08509   0.07308  -0.1030  0.7053  1.0000  -1.4722   0.0000   0.3699
   8.000   0.8573   0.08983   0.07825  -0.1034  0.6525  1.0000  -1.7186   0.0000   0.3624
   8.500   0.9114   0.09395   0.08288  -0.1025  0.5966  1.0000  -1.9842   0.0000   0.3537
   9.000   0.9150   0.09955   0.08875  -0.0997  0.5501  1.0000  -2.0683   0.0000   0.3497
   9.500   0.9432   0.10441   0.09419  -0.0968  0.4951  1.0000  -2.2330   0.0000   0.3429
  10.000   1.0078   0.10400   0.09447  -0.0888  0.4130  1.0000  -2.5569   0.0000   0.3277


