XFLR5 v6.06

 Calculated polar for: pelafoil

 1 1 Reynolds number fixed          Mach number fixed         

 xtrf =   1.000 (top)        1.000 (bottom)
 Mach =   0.000     Re =     0.250 e 6     Ncrit =   9.000

  alpha     CL        CD       CDp       Cm    Top Xtr Bot Xtr   Cpmin    Chinge    XCp    
 ------- -------- --------- --------- -------- ------- ------- -------- --------- ---------
  -2.000   0.2634   0.01213   0.00493  -0.1092  0.8530  0.0736  -1.3694   0.0000   0.6668
  -2.000   0.2634   0.01213   0.00493  -0.1092  0.8530  0.0736  -1.3694   0.0000   0.6668
  -1.000   0.3584   0.00932   0.00461  -0.1056  0.8269  0.8164  -0.8771   0.0000   0.5452
  -0.500   0.4179   0.00898   0.00421  -0.1054  0.8140  1.0000  -0.6059   0.0000   0.5021
   0.000   0.4735   0.00910   0.00413  -0.1053  0.7990  1.0000  -0.6441   0.0000   0.4716
   0.500   0.5291   0.00912   0.00390  -0.1049  0.7839  1.0000  -0.6888   0.0000   0.4469
   1.000   0.5846   0.00924   0.00389  -0.1047  0.7672  1.0000  -0.7372   0.0000   0.4273
   1.500   0.6402   0.00930   0.00378  -0.1042  0.7504  1.0000  -0.7916   0.0000   0.4106
   2.000   0.6954   0.00939   0.00382  -0.1039  0.7306  1.0000  -0.8518   0.0000   0.3968
   2.500   0.7506   0.00952   0.00384  -0.1035  0.7108  1.0000  -0.9201   0.0000   0.3848
   3.000   0.8057   0.00966   0.00387  -0.1030  0.6887  1.0000  -0.9988   0.0000   0.3743
   3.500   0.8600   0.00981   0.00401  -0.1026  0.6637  1.0000  -1.0890   0.0000   0.3652
   4.000   0.9141   0.01004   0.00420  -0.1020  0.6364  1.0000  -1.2764   0.0000   0.3571
   4.500   0.9674   0.01034   0.00448  -0.1014  0.6061  1.0000  -1.5749   0.0000   0.3497
   5.000   1.0197   0.01073   0.00479  -0.1006  0.5718  1.0000  -1.8797   0.0000   0.3430
   5.500   1.0707   0.01119   0.00521  -0.0996  0.5307  1.0000  -2.1956   0.0000   0.3368
   6.000   1.1189   0.01184   0.00576  -0.0982  0.4787  1.0000  -2.5101   0.0000   0.3309
   6.500   1.1633   0.01276   0.00643  -0.0963  0.3999  1.0000  -2.8346   0.0000   0.3253
   7.000   1.2008   0.01434   0.00747  -0.0937  0.2973  1.0000  -3.1443   0.0000   0.3199
   7.500   1.2312   0.01663   0.00901  -0.0906  0.1721  1.0000  -3.4286   0.0000   0.3148
   8.000   1.2517   0.01986   0.01133  -0.0862  0.0517  1.0000  -3.6384   0.0000   0.3095
   8.500   1.2773   0.02238   0.01393  -0.0818  0.0287  1.0000  -3.8000   0.0000   0.3040
   9.000   1.2996   0.02458   0.01626  -0.0772  0.0241  1.0000  -4.0854   0.0000   0.2987
   9.500   1.3062   0.02804   0.01998  -0.0710  0.0207  1.0000  -4.3472   0.0000   0.2929
  10.000   1.3253   0.03072   0.02285  -0.0671  0.0190  1.0000  -4.7178   0.0000   0.2885


